data/matpower_cases/case30_all.m
function mpc = case30_all
%   A network based on the matpower case30 network extended to
%   test core matpower features (e.g. multiple generators on one bus,
%   multiple lines, phase shifting transformers). [cjc]
%
%   Matpower AC-OPF Solutions for this benchmark:
%      Objective: 615.10 $/hr
%      Generation: 191.95 +i 108.03 (MW,MVar)
%            Load: 189.20 +i 107.20 (MW,MVar)
%   Losses(I^2*Z):   2.71 +i  16.93 (MW,MVar)
%
%   Orginal Sources:
%   CASE30    Power flow data for 30 bus, 6 generator case.
%   Please see CASEFORMAT for details on the case file format.
%
%   Based on data from ...
%     Alsac, O. & Stott, B., "Optimal Load Flow with Steady State Security",
%     IEEE Transactions on Power Apparatus and Systems, Vol. PAS 93, No. 3,
%     1974, pp. 745-751.
%   ... with branch parameters rounded to nearest 0.01, shunt values divided
%   by 100 and shunt on bus 10 moved to bus 5, load at bus 5 zeroed out.
%   Generator locations, costs and limits and bus areas were taken from ...
%     Ferrero, R.W., Shahidehpour, S.M., Ramesh, V.C., "Transaction analysis
%     in deregulated power systems using game theory", IEEE Transactions on
%     Power Systems, Vol. 12, No. 3, Aug 1997, pp. 1340-1347.
%   Generator Q limits were derived from Alsac & Stott, using their Pmax
%   capacities. V limits and line |S| limits taken from Alsac & Stott.


%% MATPOWER Case Format : Version 2
mpc.version = '2';

%%-----  Power Flow Data  -----%%
%% system MVA base
mpc.baseMVA = 100;

%% bus data
%	bus_i	type	Pd	Qd	Gs	Bs	area	Vm	Va	baseKV	zone	Vmax	Vmin
mpc.bus = [
	1	3	 0.0	 0.0	0.00	0.00	1	0.970	 0.000	135	1	1.05	0.95;
	2	2	21.7	12.7	0.00	0.00	1	0.961	-0.371	135	1	1.10	0.95;
	3	1	 2.4	 1.2	0.00	0.00	1	0.971	-1.229	135	1	1.05	0.95;
	4	1	 7.6	 1.6	0.00	0.00	1	0.972	-1.356	135	1	1.05	0.95;
	5	1	 0.0	 0.0	0.00	0.19	1	0.959	-1.498	135	1	1.05	0.95;
	6	1	 0.0	 0.0	0.00	0.00	1	0.966	-1.625	135	1	1.05	0.95;
	7	1	22.8	10.9	0.00	0.00	1	0.954	-2.144	135	1	1.05	0.95;
	8	1	30.0	30.0	0.00	0.00	1	0.955	-1.607	135	1	1.05	0.95;
	9	1	 0.0	 0.0	0.00	0.00	1	0.981	-1.501	135	1	1.05	0.95;
	10	1	 5.8	 2.0	0.00	0.00	3	0.992	-1.470	135	1	1.05	0.95;
	11	1	 0.0	 0.0	0.00	0.00	1	0.981	-1.501	135	1	1.05	0.95;
	12	1	11.2	 7.5	0.00	0.00	2	1.028	-0.293	135	1	1.05	0.95;
	13	2	 0.0	 0.0	0.00	0.00	2	1.085	 2.577	135	1	1.10	0.95;
	14	1	 6.2	 1.6	0.00	0.00	2	1.019	-0.859	135	1	1.05	0.95;
	15	1	 8.2	 2.5	0.00	0.00	2	1.022	-0.699	135	1	1.05	0.95;
	16	1	 3.5	 1.8	0.00	0.00	2	1.005	-1.074	135	1	1.05	0.95;
	17	1	 9.0	 5.8	0.00	0.00	2	0.990	-1.567	135	1	1.05	0.95;
	18	1	 3.2	 0.9	0.00	0.00	2	0.998	-1.692	135	1	1.05	0.95;
	19	1	 9.5	 3.4	0.00	0.00	2	0.988	-2.104	135	1	1.05	0.95;
	20	1	 2.2	 0.7	0.00	0.00	2	0.988	-2.003	135	1	1.05	0.95;
	21	1	17.5	11.2	0.00	0.00	3	1.000	-1.330	135	1	1.05	0.95;
	22	2	 0.0	 0.0	0.00	0.00	3	1.006	-1.162	135	1	1.10	0.95;
	23	2	 3.2	 1.6	0.00	0.00	2	1.049	 0.444	135	1	1.10	0.95;
	24	1	 8.7	 6.7	0.04	0.08	3	1.021	-0.192	135	1	1.05	0.95;
	25	1	 0.0	 0.0	0.00	0.00	3	1.045	 1.749	135	1	1.05	0.95;
	26	1	 3.5	 2.3	0.00	0.00	3	1.028	 1.347	135	1	1.05	0.95;
	27	2	 0.0	 0.0	0.00	0.00	3	1.069	 3.184	135	1	1.10	0.95;
	28	1	 0.0	 0.0	0.00	0.00	1	0.978	-1.259	135	1	1.05	0.95;
	29	1	 2.4	 0.9	0.00	0.00	3	1.050	 2.049	135	1	1.05	0.95;
	99	1	10.6	 1.9	0.00	0.00	3	1.039	 1.256	135	1	1.05	0.95;
];

%% generator data
%	bus	Pg	Qg	Qmax	Qmin	Vg	mBase	status	Pmax	Pmin	Pc1	Pc2	Qc1min	Qc1max	Qc2min	Qc2max	ramp_agc	ramp_10	ramp_30	ramp_q	apf
mpc.gen = [
	1	23.28	  4.74	150.0	-20	1	100	1	80	0	0	0	0	0	0	0	0	0	0	0	0;
	2	33.17	-16.00	 40.0	-20	1	100	1	40	0	0	0	0	0	0	0	0	0	0	0	0;
	2	 0.00	  0.00	 40.0	-20	1	100	1	60	0	0	0	0	0	0	0	0	0	0	0	0;
	22	39.91	 44.70	 62.5	-15	1	100	1	50	0	0	0	0	0	0	0	0	0	0	0	0;
	27	21.23	 25.93	 48.7	-15	1	100	1	55	0	0	0	0	0	0	0	0	0	0	0	0;
	23	25.41	 16.08	 40.0	-10	1	100	1	30	0	0	0	0	0	0	0	0	0	0	0	0;
	13	48.96	 32.57	 44.7	-15	1	100	1	40	0	0	0	0	0	0	0	0	0	0	0	0;
	99	 0.00	  0.00	200.0	-90	1	100	0	90	0	0	0	0	0	0	0	0	0	0	0	0;
];

%% branch data
%	fbus	tbus	r	x	b	rateA	rateB	rateC	ratio	angle	status	angmin	angmax
mpc.branch = [
	1	2	0.02	0.06	0.03	130	130	130	0.00	 0.0	1	-360	360;
	1	3	0.05	0.19	0.02	130	130	130	0.00	 0.0	1	-360	360;
	2	4	0.06	0.17	0.02	65	65	65	0.00	 0.0	1	-360	360;
	3	4	0.01	0.04	0.00	130	130	130	0.00	 0.0	1	-360	360;
	3	4	0.02	0.07	0.01	130	130	130	0.00	 0.0	1	-360	360;
	2	5	0.05	0.20	0.02	130	130	130	0.00	 0.0	1	-360	360;
	2	6	0.06	0.18	0.02	65	65	65	0.00	 0.0	1	-360	360;
	4	6	0.01	0.04	0.00	90	90	90	0.00	 0.0	1	-360	360;
	5	7	0.05	0.12	0.01	70	70	70	0.00	 0.0	1	-360	360;
	6	7	0.03	0.08	0.01	130	130	130	0.00	 0.0	1	-360	360;
	6	8	0.01	0.04	0.00	32	32	32	1.00	-0.5	1	-360	360;
	6	8	0.02	0.10	0.00	32	32	32	0.00	 0.0	0	-360	360;
	6	9	0.00	0.21	0.00	65	65	65	0.00	 0.0	1	-360	360;
	6	10	0.00	0.56	0.00	32	32	32	0.00	 0.0	1	-360	360;
	9	11	0.00	0.21	0.00	65	65	65	0.00	 0.0	1	-360	360;
	9	10	0.00	0.11	0.00	65	65	65	0.97	 0.0	1	-360	360;
	9	10	0.00	0.11	0.00	65	65	65	1.02	 0.0	1	-360	360;
	4	12	0.00	0.26	0.00	65	65	65	0.00	 0.0	1	-360	360;
	12	13	0.00	0.14	0.00	65	65	65	0.00	 0.0	1	-360	360;
	12	14	0.12	0.26	0.00	32	32	32	0.00	 0.0	1	-360	360;
	12	15	0.07	0.13	0.00	32	32	32	0.00	 0.0	1	-360	360;
	12	16	0.09	0.20	0.00	32	32	32	0.00	 0.0	1	-360	360;
	14	15	0.22	0.20	0.00	16	16	16	0.00	 0.0	1	-360	360;
	16	17	0.08	0.19	0.00	16	16	16	0.00	 0.0	1	-360	360;
	15	18	0.11	0.22	0.00	16	16	16	0.00	 0.0	1	-360	360;
	18	19	0.06	0.13	0.00	16	16	16	0.00	 0.0	1	-360	360;
	19	20	0.03	0.07	0.00	32	32	32	0.00	 0.0	1	-360	360;
	10	20	0.09	0.21	0.00	32	32	32	0.00	 0.0	1	-360	360;
	10	17	0.03	0.08	0.00	32	32	32	0.00	 0.0	1	-360	360;
	10	21	0.03	0.07	0.00	32	32	32	0.00	 0.0	1	-360	360;
	10	22	0.07	0.15	0.00	32	32	32	0.00	 0.0	1	-360	360;
	21	22	0.01	0.02	0.00	32	32	32	0.00	 0.0	1	-360	360;
	15	23	0.10	0.20	0.00	16	16	16	0.00	 0.0	1	-360	360;
	22	24	0.12	0.18	0.00	16	16	16	0.00	 0.0	1	-360	360;
	23	24	0.13	0.27	0.00	16	16	16	0.00	 0.0	1	-360	360;
	24	25	0.19	0.33	0.00	16	16	16	0.00	 0.0	1	-360	360;
	25	26	0.25	0.38	0.00	16	16	16	0.00	 0.0	1	-360	360;
	25	27	0.11	0.21	0.00	16	16	16	0.00	 0.0	1	-360	360;
	28	27	0.00	0.40	0.00	65	65	65	0.00	 0.0	1	-360	360;
	27	29	0.22	0.42	0.00	16	16	16	0.00	 0.0	1	-360	360;
	27	99	0.32	0.60	0.00	16	16	16	0.00	 0.0	1	-360	360;
	29	99	0.24	0.45	0.00	16	16	16	0.00	 0.0	1	-360	360;
	8	28	0.06	0.20	0.02	32	32	32	0.00	 0.0	1	-360	360;
	6	28	0.02	0.06	0.01	32	32	32	0.00	 0.0	1	-360	360;
];

%%-----  OPF Data  -----%%
%% area data
%	area	refbus
mpc.areas = [
	1	8;
	2	23;
	3	26;
];

%% generator cost data
%	1	startup	shutdown	n	x1	y1	...	xn	yn
%	2	startup	shutdown	n	c(n-1)	...	c0
mpc.gencost = [
	2	0	0	3	0.02000	2.00	0;
	2	0	0	3	0.01750	1.75	0;
	2	0	0	3	0.00834	3.25	0;
	2	0	0	3	0.06250	1.00	0;
	2	0	0	3	0.00834	3.25	0;
	2	0	0	3	0.02500	3.00	0;
	2	0	0	3	0.02500	3.00	0;
	2	0	0	3	0.00000	1.00	0;
];
